Version 4
SHEET 1 880 680
WIRE 208 208 208 176
WIRE 208 320 208 272
FLAG 208 320 0
SYMBOL res 192 80 R0
SYMATTR InstName R1
SYMBOL diode 192 208 R0
SYMATTR InstName D1
SYMBOL voltage 64 144 R0
WINDOW 123 0 0 Left 2
WINDOW 39 0 0 Left 2
SYMATTR InstName V1
SYMATTR Value 12
